output/compact_ny_2025/electrical_fixed_peak/S6_2025_LOW_TOTAL_EAST_PUBLIC/audit_branch.csv
branch_row,device_key,from_bus,to_bus,online,rate_a_mva,from_mva,to_mva,from_overload_mva,to_overload_mva,angle_deg,angle_min_deg,angle_max_deg,angle_below_min_deg,angle_above_max_deg,violated,invalid_limit_bounds,stored_terminal_flow_error_mva,stored_terminal_flow_inconsistent
1,NPCC_S7:BRANCH_ROW:33,37,38,1,2500,52.1580622162615,49.3434740302864,0,0,-0.449126975292863,-360,360,0,0,0,0,7.94410929039127e-15,0
2,NPCC_S7:BRANCH_ROW:34,37,39,1,3388,473.900240472586,474.941242659831,0,0,1.99053338333098,-360,360,0,0,0,0,2.82729052784025e-12,0
3,NPCC_S7:BRANCH_ROW:35,37,40,1,2500,20.6240479532252,18.5205237872865,0,0,-0.320978207418222,-360,360,0,0,0,0,2.13901688873227e-14,0
4,NPCC_S7:BRANCH_ROW:36,37,43,0,3745.98196383403,0,0,0,0,-1.32490578879238,-360,360,0,0,0,0,0,0
5,NPCC_S7:BRANCH_ROW:37,38,69,1,1216,24.9490635791381,79.3219400629671,0,0,-0.79318512964565,-360,360,0,0,0,0,3.56928466297351e-13,0
6,NPCC_S7:BRANCH_ROW:38,39,73,1,2500,379.665211048414,377.014602914001,0,0,4.01369417155643,-360,360,0,0,0,0,1.13908665908592e-13,0
7,NPCC_S7:BRANCH_ROW:39,39,73,1,2500,379.665211048414,377.014602914001,0,0,4.01369417155643,-360,360,0,0,0,0,1.13908665908592e-13,0
8,NPCC_S7:BRANCH_ROW:40,40,44,0,1328.76341358641,0,0,0,0,0.378105297744879,-360,360,0,0,0,0,0,0
9,NPCC_S7:BRANCH_ROW:41,41,42,1,2500,377.641559615594,380.949057097511,0,0,-1.82770903213046,-360,360,0,0,0,0,2.89783859320846e-12,0
10,NPCC_S7:BRANCH_ROW:42,41,45,1,314.254622579561,30.0986145591911,27.0800149163593,0,0,3.80097294860311,-360,360,0,0,0,0,9.2728549362691e-14,0
11,NPCC_S7:BRANCH_ROW:43,43,44,1,2500,263.139966966846,267.673295670847,0,0,1.38203287911903,-360,360,0,0,0,0,0,0
12,NPCC_S7:BRANCH_ROW:44,43,50,1,3463.47124449306,225.743046675679,245.230416197459,0,0,-1.63007512723014,-360,360,0,0,0,0,3.17764371615651e-14,0
13,NPCC_S7:BRANCH_ROW:45,43,50,1,3463.47124449306,225.743046675679,245.230416197459,0,0,-1.63007512723014,-360,360,0,0,0,0,3.17764371615651e-14,0
14,NPCC_S7:BRANCH_ROW:46,44,45,1,2500,275.889404014282,273.892652166157,0,0,3.21045853793394,-360,360,0,0,0,0,7.105427357601e-15,0
15,NPCC_S7:BRANCH_ROW:47,44,48,0,6896.14528055676,0,0,0,0,4.58033038483424,-360,360,0,0,0,0,0,0
16,NPCC_S7:BRANCH_ROW:48,45,46,1,2040.85471944324,31.5546702198843,18.2571487740785,0,0,-0.493886590050533,-360,360,0,0,0,0,1.77635683940025e-15,0
17,NPCC_S7:BRANCH_ROW:49,45,51,1,489.56239109923,36.8186542070581,40.6744982250679,0,0,-4.19778814588185,-360,360,0,0,0,0,3.5527136788005e-15,0
18,NPCC_S7:BRANCH_ROW:50,45,71,1,166.495119914644,18.5387496975188,25.3021980473748,0,0,-6.7406509532178,-360,360,0,0,0,0,2.19723206329067e-14,0
19,NPCC_S7:BRANCH_ROW:51,46,47,1,2500,33.1248226692363,34.408845133525,0,0,-2.08054912849193,-360,360,0,0,0,0,7.105427357601e-15,0
20,NPCC_S7:BRANCH_ROW:52,46,49,1,2500,17.4682831046848,15.6101750851874,0,0,4.76923139404504,-360,360,0,0,0,0,5.55111512312578e-15,0
21,NPCC_S7:BRANCH_ROW:53,47,48,1,2500,252.367223655102,252.367373129603,0,0,3.94430756544276,-360,360,0,0,0,0,2.8477166477148e-14,0
22,NPCC_S7:BRANCH_ROW:54,50,51,1,2500,223.786722014273,232.845065964261,0,0,2.02477839840127,-360,360,0,0,0,0,4.01943669423046e-14,0
23,NPCC_S7:BRANCH_ROW:55,50,52,1,2858.06690137886,545.988727465227,508.139621498232,0,0,5.91633946276482,-360,360,0,0,0,0,5.6843418860808e-14,0
24,NPCC_S7:BRANCH_ROW:56,51,53,1,290.964700741948,100.261549332055,93.0826612281878,0,0,9.64401657426759,-360,360,0,0,0,0,2.8421709430404e-14,0
25,NPCC_S7:BRANCH_ROW:57,51,72,1,2500,300.013169039506,303.607261359978,0,0,-2.84378354291182,-360,360,0,0,0,0,1.79754673591127e-13,0
26,NPCC_S7:BRANCH_ROW:58,52,53,1,2500,379.501349593792,419.22171146987,0,0,5.75245550990404,-360,360,0,0,0,0,5.6843418860808e-14,0
27,NPCC_S7:BRANCH_ROW:59,53,55,1,997.983883346124,184.419889231874,177.825775456795,0,0,-2.47794356377166,-360,360,0,0,0,0,3.26095768178295e-14,0
28,NPCC_S7:BRANCH_ROW:60,53,65,1,785.968397879188,6.12254456646897,4.10801435170226,0,0,0.175748130026513,-360,360,0,0,0,0,2.01921948043234e-13,0
29,NPCC_S7:BRANCH_ROW:61,54,56,1,789.941803,44.8860118407624,49.2738926520515,0,0,-0.330158698776941,-360,360,0,0,0,0,7.105427357601e-15,0
30,NPCC_S7:BRANCH_ROW:62,54,62,1,789.941803,31.622038171517,41.1742085408663,0,0,0.7163148356401,-360,360,0,0,0,0,2.16103136462856e-14,0
31,NPCC_S7:BRANCH_ROW:65,55,57,1,789.941803,79.2592326621076,80.2957734868258,0,0,1.23496258343311,-360,360,0,0,0,0,6.79906236520532e-13,0
32,NPCC_S7:BRANCH_ROW:66,55,59,1,789.941803,58.1959838656055,57.9383170192765,0,0,0.935775747605803,-360,360,0,0,0,0,3.38908448789765e-13,0
33,NPCC_S7:BRANCH_ROW:67,56,58,1,2500,320.519630972182,315.364603431899,0,0,1.38601233102177,-360,360,0,0,0,0,1.0247593068766e-13,0
34,NPCC_S7:BRANCH_ROW:68,57,59,1,2500,29.5382437544662,27.766406632131,0,0,-0.299186835827312,-360,360,0,0,0,0,4.22235200545796e-14,0
35,NPCC_S7:BRANCH_ROW:69,58,60,1,2500,183.753035685834,193.146518873399,0,0,-1.57129244184025,-360,360,0,0,0,0,1.20792265079217e-13,0
36,NPCC_S7:BRANCH_ROW:70,58,62,1,2500,107.392258942487,106.865630766784,0,0,-0.339538796604732,-360,360,0,0,0,0,1.79895052115912e-13,0
37,NPCC_S7:BRANCH_ROW:71,59,61,1,2500,27.6694624812472,29.1749179648905,0,0,-2.74865403167465,-360,360,0,0,0,0,8.56758467894045e-14,0
38,NPCC_S7:BRANCH_ROW:73,62,63,1,620,66.3108049405903,54.9368849962857,0,0,-0.548072693407137,-360,360,0,0,0,0,3.5527136788005e-15,0
39,NPCC_S7:BRANCH_ROW:74,63,64,1,2500,85.6158996385356,87.8834013249325,0,0,1.45618042434232,-360,360,0,0,0,0,1.58882185807825e-14,0
40,NPCC_S7:BRANCH_ROW:75,63,67,1,2500,82.5906269908516,85.9002889162806,0,0,-4.24958309029372,-360,360,0,0,0,0,1.77635683940025e-15,0
41,NPCC_S7:BRANCH_ROW:76,64,65,1,2500,79.3211336181409,77.032933139847,0,0,2.60004730468211,-360,360,0,0,0,0,1.99458850824189e-13,0
42,NPCC_S7:BRANCH_ROW:77,64,68,1,2500,45.9203690611013,48.1053811518463,0,0,-5.36623065841308,-360,360,0,0,0,0,7.1607233460989e-15,0
43,NPCC_S7:BRANCH_ROW:78,66,67,1,2500,92.4800861741638,94.1110916514367,0,0,0.644003940372108,-360,360,0,0,0,0,7.2461425497647e-14,0
44,NPCC_S7:BRANCH_ROW:79,66,69,1,2500,103.732993845626,122.311047049885,0,0,-1.18205953192111,-360,360,0,0,0,0,1.4210854715202e-14,0
45,NPCC_S7:BRANCH_ROW:81,67,68,1,2500,153.170658591785,164.025215394915,0,0,0.33953285622296,-360,360,0,0,0,0,3.66205343881779e-14,0
46,NPCC_S7:BRANCH_ROW:82,67,70,1,2500,110.169780148429,114.202988513518,0,0,-2.33198171095128,-360,360,0,0,0,0,3.5527136788005e-14,0
47,NPCC_S7:BRANCH_ROW:84,68,71,1,2500,86.618572755237,78.8688916921574,0,0,-4.39634954853487,-360,360,0,0,0,0,4.90432146175071e-14,0
48,NPCC_S7:BRANCH_ROW:85,69,71,1,2500,199.737713962307,186.308734715834,0,0,-2.23075322001869,-360,360,0,0,0,0,3.71933661207959e-13,0
49,NPCC_S7:BRANCH_ROW:86,70,71,1,2500,114.202988513518,108.292700201389,0,0,-1.72483498136064,-360,360,0,0,0,0,3.55555471378375e-13,0
50,NPCC_S7:BRANCH_ROW:87,71,72,1,2500,124.826171910756,130.254577670349,0,0,-0.30092073557586,-360,360,0,0,0,0,3.27158444213789e-13,0
51,NPCC_S7:BRANCH_ROW:88,73,74,0,1599.84337349398,0,0,0,0,4.33544868046731,-360,360,0,0,0,0,0,0
52,NPCC_S7:BRANCH_ROW:89,73,74,0,1599.84337349398,0,0,0,0,4.33544868046731,-360,360,0,0,0,0,0,0
53,NPCC_S7:BRANCH_ROW:90,74,77,1,2500,54.953652287963,57.1340274700385,0,0,-0.143186227212455,-360,360,0,0,0,0,2.75985262594449e-12,0
54,NPCC_S7:BRANCH_ROW:91,74,78,1,2889.50495049505,487.613576689977,488.092322904642,0,0,1.32443834536276,-360,360,0,0,0,0,2.80765097726615e-12,0
55,NPCC_S7:BRANCH_ROW:92,74,78,1,2889.50495049505,487.613576689977,488.092322904642,0,0,1.32443834536276,-360,360,0,0,0,0,2.80765097726615e-12,0
56,NPCC_S7:BRANCH_ROW:94,76,77,0,4611.31325301205,0,0,0,0,0.440149614189538,-360,360,0,0,0,0,0,0
57,NPCC_S7:BRANCH_ROW:95,78,79,0,908.848753535103,0,0,0,0,1.93033717214804,-360,360,0,0,0,0,0,0
58,NPCC_S7:BRANCH_ROW:96,78,80,1,984.654731457801,240.992149788116,217.016143690556,0,0,3.18072318294345,-360,360,0,0,0,0,6.35528743231302e-14,0
59,NPCC_S7:BRANCH_ROW:97,78,81,0,503.818330764024,0,0,0,0,-0.638483621225252,-360,360,0,0,0,0,0,0
60,NPCC_S7:BRANCH_ROW:98,78,82,1,451.473569126203,245.489473008287,228.991809785203,0,0,2.70742715591149,-360,360,0,0,0,0,4.01943669423046e-14,0
61,NPCC_S7:BRANCH_ROW:219,40,41,1,2500,24.4926806760094,24.4618251125244,0,0,-0.212409112924289,-360,360,0,0,0,0,1.42728144160057e-12,0
62,NPCC_S7:BRANCH_ROW:220,49,48,1,2500,40.2974841260762,40.8448351705629,0,0,-2.90547295709421,-360,360,0,0,0,0,2.16103136462856e-14,0
63,NPCC_S7:BRANCH_ROW:222,54,52,1,4583.01611665388,136.153829749742,134.705253357854,0,0,-1.70373376867316,-360,360,0,0,0,0,1.4210854715202e-14,0
64,NPCC_S7:BRANCH_ROW:223,54,55,1,2500,848.818531530747,759.014211199845,0,0,1.57077817745922,-360,360,0,0,0,0,1.37867264534576e-12,0
65,NPCC_S7:BRANCH_ROW:224,56,57,1,2500,67.1582022210792,61.9343423321148,0,0,3.13589945966927,-360,360,0,0,0,0,9.26434382393303e-14,0
66,NPCC_S7:BRANCH_ROW:225,58,59,1,2500,297.209470329317,292.521218864285,0,0,1.45070029282019,-360,360,0,0,0,0,1.52791472552458e-12,0
67,NPCC_S7:BRANCH_ROW:226,60,61,1,2500,85.3664199486829,91.1089905112287,0,0,0.273338702985797,-360,360,0,0,0,0,1.95399252334028e-14,0
68,NPCC_S7:BRANCH_ROW:227,75,76,1,2500,13.2093190497442,13.2095123158404,0,0,-0.0597292329284507,-360,360,0,0,0,0,1.77641104868172e-15,0
69,NPCC_S7:BRANCH_ROW:234,38,39,1,1216,215.078237483243,220.16486796608,0,0,2.43966035862384,-360,360,0,0,0,0,7.17404092394442e-13,0
70,NPCC_S7:BRANCH_ROW:235,73,9002,0,2432,0,0,0,0,2.26262452936517,-360,360,0,0,0,0,0,0
71,NPCC_S7:BRANCH_ROW:236,9002,74,0,2432,0,0,0,0,2.07282415110214,-360,360,0,0,0,0,0,0
72,NPCC_S7:BRANCH_ROW:237,74,78,1,866.851485148515,147.331352287429,146.62379154352,0,0,1.32443834536276,-360,360,0,0,0,0,7.06561424185687e-13,0
73,NPCC_S7:BRANCH_ROW:238,77,78,1,650.138613861386,121.388352732465,120.876062073258,0,0,1.46762457257521,-360,360,0,0,0,0,1.77635683940025e-14,0
74,NPCC_S7:BRANCH_ROW:239,78,81,0,1158.78216075726,0,0,0,0,-0.638483621225252,-360,360,0,0,0,0,0,0
75,NPCC_S7:BRANCH_ROW:240,78,79,0,1390.53859290871,0,0,0,0,1.93033717214804,-360,360,0,0,0,0,0,0
76,NPCC_S7:BRANCH_ROW:241,78,82,1,1390.53859290871,754.849691985023,704.121423070629,0,0,2.70742715591149,-360,360,0,0,0,0,7.19018694364508e-13,0
77,NPCC_S7:BRANCH_ROW:242,78,9003,1,2865.3452685422,304.449321377245,323.941144141873,0,0,0.775044818321199,-360,360,0,0,0,0,3.73018018206229e-13,0
78,NPCC_S7:BRANCH_ROW:243,9003,80,1,5000,385.8969102857,408.774967755707,0,0,2.40567836462226,-360,360,0,0,0,0,3.86577042625488e-13,0
79,NPCC_S7:BRANCH_ROW:244,81,80,1,2950,409.310765303225,452.805753756832,0,0,3.81920680416871,-360,360,0,0,0,0,1.2710574864626e-13,0
80,NPCC_S7:BRANCH_ROW:245,39,9001,1,5000,123.16333263071,122.495911233654,0,0,2.48948556427567,-360,360,0,0,0,0,3.62098043815448e-13,0
81,NPCC_S7:BRANCH_ROW:246,9001,73,0,5000,0,0,0,0,1.52420860728075,-360,360,0,0,0,0,0,0
82,PERFORM2019:AC:651:858:1,73,858,1,1216,306.82009963435,306.918005999193,0,0,0.960354512850225,-360,360,0,0,0,0,1.06581410364015e-14,0
83,PERFORM2019:AC:651:858:2,73,858,1,1216,306.820078962204,306.918038894461,0,0,0.960354512850225,-360,360,0,0,0,0,7.105427357601e-15,0
84,PERFORM2019:AC:651:902:1,73,9002,1,1216,307.422901169529,307.973046807133,0,0,2.26262452936517,-360,360,0,0,0,0,3.5527136788005e-15,0
85,PERFORM2019:AC:651:902:2,73,9002,1,1216,307.422880101503,307.973095921461,0,0,2.26262452936517,-360,360,0,0,0,0,5.6843418860808e-14,0
86,PERFORM2019:AC:858:902:1,858,9002,1,1216,306.917989551838,307.35983225967,0,0,1.30227001651495,-360,360,0,0,0,0,1.06581410364015e-14,0
87,PERFORM2019:AC:858:902:2,858,9002,1,1216,306.918055342374,307.359734400747,0,0,1.30227001651495,-360,360,0,0,0,0,1.77635683940025e-14,0
88,PERFORM2019:AC:897:902:1,9002,74,1,1216,615.3322792168,613.026087194827,0,0,2.07282415110214,-360,360,0,0,0,0,3.48383385702711e-13,0
89,PERFORM2019:AC:897:902:2,9002,74,1,1216,615.333406722523,613.02512228011,0,0,2.07282415110214,-360,360,0,0,0,0,2.76626615850363e-12,0
90,PERFORM2019:AC:774:1519:1,76,774,1,1216,90.2205917986833,88.8358922041455,0,0,0.149478342823016,-360,360,0,0,0,0,1.3818594862864e-12,0
91,PERFORM2019:AC:774:900:1,774,77,1,1725,88.8358922041462,87.4470086734441,0,0,0.290671271366522,-360,360,0,0,0,0,6.84862308114634e-13,0
92,PERFORM2019:AC:900:1519:1,76,77,1,1725,89.4824296126967,86.6725637307358,0,0,0.440149614189538,-360,360,0,0,0,0,6.84181656529764e-13,0
93,NY2025:CEEC:351,43,9101,1,2000,107.44327578907,60.3423920351745,0,0,0.901605284915017,-360,360,0,0,0,0,7.105427357601e-15,0
94,NY2025:CEEC:352,43,9101,1,2000,107.44327578907,60.3423920351745,0,0,0.901605284915017,-360,360,0,0,0,0,7.105427357601e-15,0
95,NY2025:CEEC:361,9101,37,1,2000,75.4954948613406,70.675504586584,0,0,0.423300503877359,-360,360,0,0,0,0,9.9539404104987e-14,0
96,NY2025:CEEC:362,9101,37,1,2000,75.4954948613406,70.675504586584,0,0,0.423300503877359,-360,360,0,0,0,0,9.9539404104987e-14,0
97,NY2025:CEEC:14,43,9102,1,2000,102.97620186355,51.9814417434992,0,0,0.863830794624124,-360,360,0,0,0,0,2.86428933843956e-14,0
98,NY2025:CEEC:371,9101,9102,1,2000,33.0214752726608,33.3954910441235,0,0,-0.0377744902908923,-360,360,0,0,0,0,3.62576030645226e-13,0
99,NY2025:CEEC:LEGACY230:1,40,9103,1,1328.76341358641,12.9832431936598,9.6609732452719,0,0,0.0809711581325652,-360,360,0,0,0,0,1.43579336726508e-12,0
100,NY2025:CEEC:LEGACY230:2,9103,44,1,1328.76341358641,21.2459434630053,24.3668024947946,0,0,0.297134139612314,-360,360,0,0,0,0,1.43562715655379e-12,0
101,NY2025:CEEC:GORDON_XFMR,9102,9103,1,1200,21.0013420542226,21.0758251995634,0,0,0.221067944882594,-360,360,0,0,0,0,7.14097658834537e-13,0
102,NY2025:NYES:1,9001,9104,1,1800,122.495911233653,125.019344456127,0,0,0.623240414013469,-360,360,0,0,0,0,1.85966830603979e-13,0
103,NY2025:NYES:2,9104,73,1,1800,125.019344456129,134.222437012336,0,0,0.900968193267285,-360,360,0,0,0,0,2.8421709430404e-14,0
104,NY2025:SMART_PATH:1,1220,48,1,575,84.6808676760762,51.7653706700546,0,0,2.64513504225363,-360,360,0,0,0,0,0,0
105,NY2025:SMART_PATH:2,1220,48,1,575,84.6694727961976,51.7416629022745,0,0,2.64513504225363,-360,360,0,0,0,0,3.5527136788005e-15,0
106,NY2025:SMART_PATH:3,1220,44,1,453,84.6751700837771,103.395540119528,0,0,-1.93519534258061,-360,360,0,0,0,0,7.105427357601e-15,0
107,NY2025:SMART_PATH:4,1220,44,1,453,84.6751700837771,103.395540119528,0,0,-1.93519534258061,-360,360,0,0,0,0,7.105427357601e-15,0
108,NY2025:NYC:DELIVERY:95:1,78,1130,1,908.848753535103,427.206692870407,413.63153939878,0,0,0.869924536096523,-360,360,0,0,0,0,5.6843418860808e-14,0
109,NY2025:NYC:DELIVERY:95:2,1130,79,1,908.848753535103,465.924521831787,448.876672891896,0,0,1.06041263605151,-360,360,0,0,0,0,1.83314517660132e-12,0
110,NY2025:NYC:DELIVERY:240:1,78,557,1,1390.53859290871,655.247695435268,634.369653090528,0,0,0.8789150425103,-360,360,0,0,0,0,1.13686837721616e-13,0
111,NY2025:NYC:DELIVERY:240:2,557,79,1,1390.53859290871,709.070516696391,683.187005983866,0,0,1.05142212963774,-360,360,0,0,0,0,1.2710574864626e-13,0
112,NY2025:NYC:DELIVERY:97:1,78,1129,1,503.818330764024,66.5939675272701,67.1569488462974,0,0,-0.291027339166673,-360,360,0,0,0,0,0,0
113,NY2025:NYC:DELIVERY:97:2,1129,81,1,503.818330764024,82.0788526151666,82.9240555131785,0,0,-0.347456282058578,-360,360,0,0,0,0,3.44668161336441e-13,0
114,NY2025:NYC:DELIVERY:239:1,78,1129,1,1158.78216075726,152.916254864419,154.208999508729,0,0,-0.291027339166673,-360,360,0,0,0,0,3.17764371615651e-14,0
115,NY2025:NYC:DELIVERY:239:2,1129,81,1,1158.78216075726,188.473388979868,190.4141843186,0,0,-0.347456282058578,-360,360,0,0,0,0,2.8421709430404e-14,0
116,NY2025:NYC:RAINEY_XFMR,1130,1529,1,1500,52.3306215774832,53.2337673296324,0,0,-0.514676601214966,-360,360,0,0,0,0,3.48184066140835e-13,0
117,NY2025:NYC:ASTORIA_XFMR,557,1493,1,1500,74.7028842546303,76.1263662834109,0,0,-0.554041905931427,-360,360,0,0,0,0,7.105427357601e-15,0
118,NY2025:NYC:CORONA_BASELINE,1493,601,1,2248,76.1263662834193,66.6777154423271,0,0,-0.0150236579680048,-360,360,0,0,0,0,7.105427357601e-15,0
119,NY2025:RCC_QUEENS:CABLE,1529,601,1,300,53.2337673296267,50.7451135136538,0,0,-0.0453984562706893,-360,360,0,0,0,0,2.6996346339755e-12,0
120,NY2025:RCC_BROOKLYN:PAR,1129,9112,1,300,49.1821480136185,48.5113955800283,0,0,0.439251496168032,-360,360,0,0,0,0,1.75778565063254e-13,0
121,NY2025:RCC_BROOKLYN:CABLE,9112,9111,1,300,48.5113955799843,48.9197558122597,0,0,0.0083574189507214,-360,360,0,0,0,0,2.18138428051678e-11,0
122,NY2025:RCC_STATEN:PAR,81,9113,1,300,59.225710064519,58.3105511723993,0,0,0.579791411583903,-360,360,0,0,0,0,8.7889282531627e-14,0
123,NY2025:RCC_STATEN:CABLE,9113,9114,1,300,58.3105511724013,61.9121204161737,0,0,0.104798210168473,-360,360,0,0,0,0,6.82454011961601e-13,0
124,NY2025:NYC:GREENWOOD_CORONA,9111,601,1,600,114.790939166826,117.393542599514,0,0,0.153267902658788,-360,360,0,0,0,0,1.35802916037778e-12,0
125,NY2025:NYC:FOX_GREENWOOD,9114,9111,1,600,61.9121204161664,65.8733956342616,0,0,0.110475575424955,-360,360,0,0,0,0,1.02712141367605e-12,0
